testData/tamu2000/pfcases_100_zone3/Equ_tx2000_hr_5571_mod_v23_zone3_pslf.raw
0  100.000 
THIS IS A SYNTHETIC POWER SYSTEM MODEL THAT DOES NOT REPRESE
DATA RESEARCH PROJECT AND CONTAINS NO CEII.
1004,  2,  33.965,  -17.195,  0.000,  0.000,  1,  1.02809,  -27.5869,  'O DONNEL',  230.00,  9
1009,  2,  20.481,  -3.286,  0.000,  0.000,  1,  1.01105,  -26.5669,  'IRAAN 2 ',  13.800,  9
1021,  2,  30.557,  -13.106,  0.000,  0.000,  1,  1.00841,  -25.0205,  'BIG SPRI',  13.800,  9
1023,  2,  22.019,  -4.085,  0.000,  0.000,  1,  1.01000,  -21.7355,  'O DONNEL',  13.800,  9
1026,  2,  25.460,  -9.486,  0.000,  0.000,  1,  1.00506,  -23.6490,  'BIG SPRI',  13.800,  9
1033,  2,  140.266,  -39.557,  0.000,  0.000,  1,  1.00384,  -31.6713,  'MCCAMEY ',  230.00,  9
1035,  2,  35.402,  -12.389,  0.000,  0.000,  1,  1.00459,  -24.1178,  'BIG SPRI',  13.800,  9
1039,  2,  20.218,  -8.416,  0.000,  0.000,  1,  1.00139,  -24.7814,  'FORT STO',  22.000,  9
1042,  2,  37.755,  -6.515,  0.000,  0.000,  1,  1.00000,  -21.1346,  'FORSAN 1',  13.800,  9
1048,  2,  71.118,  -11.243,  0.000,  0.000,  1,  1.00000,  -26.2559,  'MONAHANS',  18.000,  9
1049,  2,  54.799,  -5.165,  0.000,  0.000,  1,  1.00000,  -23.3873,  'MONAHANS',  18.000,  9
1053,  2,  46.543,  -11.557,  0.000,  0.000,  1,  1.00747,  -30.2351,  'MONAHANS',  230.00,  9
1057,  2,  58.733,  -14.926,  0.000,  0.000,  1,  1.00600,  -26.1245,  'LENORAH ',  18.000,  9
1066,  2,  39.065,  -7.687,  0.000,  0.000,  1,  1.00000,  -21.4454,  'BIG SPRI',  13.800,  9
1070,  2,  40.512,  -1.396,  0.000,  0.000,  1,  1.04000,  -26.2507,  'IRAAN 1 ',  13.800,  9
1072,  3,  22.809,  -5.430,  0.000,  0.000,  1,  1.01000,  -40.7993,  'ODESSA 1',  18.000,  9
1073,  2,  24.564,  -3.226,  0.000,  0.000,  1,  1.01000,  -31.9166,  'ODESSA 1',  18.000,  9
1074,  2,  25.635,  -2.055,  0.000,  0.000,  1,  1.01000,  -32.1407,  'ODESSA 1',  18.000,  9
1075,  2,  30.928,  -2.544,  0.000,  0.000,  1,  1.01000,  -32.9457,  'ODESSA 1',  18.000,  9
1076,  2,  69.419,  -8.209,  0.000,  0.000,  1,  1.01000,  -34.5677,  'ODESSA 1',  18.000,  9
1077,  2,  26.328,  -2.341,  0.000,  0.000,  1,  1.01000,  -32.2664,  'ODESSA 1',  18.000,  9
1081,  2,  59.571,  -23.265,  0.000,  0.000,  1,  1.01000,  -31.2701,  'ODESSA 1',  230.00,  9
1082,  2,  60.983,  -29.691,  0.000,  0.000,  1,  1.01954,  -26.8397,  'FORT STO',  115.00,  9
1084,  2,  95.773,  -32.931,  0.000,  0.000,  1,  1.03680,  -30.3611,  'BIG SPRI',  115.00,  9
1088,  2,  38.882,  -7.605,  0.000,  0.000,  1,  1.00000,  -28.2888,  'MCCAMEY ',  115.00,  9
2004,  2,  126.483,  -34.298,  0.000,  0.000,  2,  1.02618,  -41.8270,  'SAVOY 2 ',  13.800,  11
2005,  2,  107.305,  -29.861,  0.000,  0.000,  2,  1.02520,  -41.6656,  'SAVOY 3 ',  13.800,  11
2006,  2,  70.955,  -19.746,  0.000,  0.000,  2,  1.02082,  -41.0434,  'SAVOY 4 ',  13.800,  11
2013,  2,  2.143,  -5.826,  0.000,  0.000,  2,  1.03749,  -35.0196,  'PANHANDL',  18.000,  10
2024,  2,  65.156,  -23.492,  0.000,  0.000,  2,  1.03008,  -41.8214,  'PARIS 2 ',  13.800,  11
2057,  3,  97.198,  -94.969,  0.000,  0.000,  2,  0.99000,  -39.7853,  'WICHITA ',  18.000,  11
2062,  2,  43.876,  -20.586,  0.000,  0.000,  2,  1.02000,  -34.5994,  'VERNON 1',  18.000,  10
2071,  2,  19.725,  -10.415,  0.000,  0.000,  2,  1.00923,  -35.8370,  'ARCHER 2',  18.000,  11
2078,  2,  56.466,  -15.029,  0.000,  0.000,  2,  1.02000,  -42.3699,  'MUENSTER',  13.800,  11
2095,  2,  -2.191,  8.460,  0.000,  0.000,  2,  1.02807,  -34.3157,  'PANHANDL',  13.800,  10
2115,  2,  43.776,  -15.467,  0.000,  0.000,  2,  1.02691,  -41.2475,  'PARIS 1 ',  13.800,  11
2116,  2,  73.724,  -27.591,  0.000,  0.000,  2,  1.03048,  -41.8051,  'PARIS 1 ',  13.800,  11
2117,  2,  38.793,  -13.262,  0.000,  0.000,  2,  1.02543,  -41.0678,  'PARIS 1 ',  13.800,  11
2118,  2,  35.624,  -12.242,  0.000,  0.000,  2,  1.02451,  -40.9211,  'PARIS 1 ',  13.800,  11
2119,  2,  62.284,  -23.146,  0.000,  0.000,  2,  1.02962,  -41.6741,  'PARIS 1 ',  13.800,  11
2120,  2,  36.790,  -12.721,  0.000,  0.000,  2,  1.02496,  -40.9786,  'PARIS 1 ',  13.800,  11
2127,  2,  102.734,  -136.466,  0.000,  0.000,  2,  1.04713,  -36.6342,  'MIAMI 0 ',  500.00,  10
3017,  2,  33.619,  1.957,  0.000,  0.000,  3,  1.01000,  -26.4534,  'BLACKWEL',  18.000,  27
3020,  2,  115.737,  -5.453,  0.000,  0.000,  3,  1.03000,  -35.5538,  'CHRISTOV',  13.800,  27
3028,  2,  43.256,  -2.991,  0.000,  0.000,  3,  1.04000,  -34.7055,  'ABILENE ',  18.000,  27
3034,  2,  23.901,  -2.379,  0.000,  0.000,  3,  1.03000,  -20.6771,  'SNYDER 1',  22.000,  27
3039,  2,  23.395,  -6.322,  0.000,  0.000,  3,  1.04000,  -29.0508,  'ROSCOE 2',  13.800,  27
3045,  2,  13.702,  -1.240,  0.000,  0.000,  3,  1.04000,  -27.8979,  'SILVER 4',  13.800,  27
3048,  2,  539.741,  -676.887,  0.000,  0.000,  3,  1.04969,  -38.4406,  'ROSCOE 5',  500.00,  27
3055,  2,  38.993,  -2.734,  0.000,  0.000,  3,  1.04000,  -30.2645,  'WINGATE ',  13.800,  27
3056,  2,  28.086,  -0.291,  0.000,  0.000,  3,  1.04000,  -28.8934,  'WINGATE ',  13.800,  27
3057,  2,  28.614,  -0.612,  0.000,  0.000,  3,  1.04000,  -28.9784,  'WINGATE ',  13.800,  27
3060,  2,  16.063,  0.107,  0.000,  0.000,  3,  1.04000,  -26.8696,  'STERLING',  18.000,  27
3061,  2,  18.216,  0.159,  0.000,  0.000,  3,  1.04000,  -28.0244,  'STERLING',  18.000,  27
3062,  2,  25.140,  -2.692,  0.000,  0.000,  3,  1.04000,  -29.4510,  'STERLING',  18.000,  27
3063,  2,  20.424,  0.019,  0.000,  0.000,  3,  1.04000,  -28.8359,  'STERLING',  18.000,  27
3065,  2,  7.296,  -5.554,  0.000,  0.000,  3,  1.01387,  -24.9036,  'ROSCOE 4',  18.000,  27
3068,  2,  23.687,  -0.118,  0.000,  0.000,  3,  1.04000,  -26.1490,  'TRENT 1 ',  20.000,  27
3071,  2,  18.712,  -3.853,  0.000,  0.000,  3,  1.00783,  -26.0546,  'NOLAN 1 ',  24.000,  27
3074,  2,  51.138,  -14.832,  0.000,  0.000,  3,  1.00912,  -67.2263,  'BRACKETT',  13.800,  28
3081,  2,  12.924,  -2.846,  0.000,  0.000,  3,  1.04000,  -27.4491,  'HERMLEIG',  20.000,  27
3084,  2,  18.887,  -9.395,  0.000,  0.000,  3,  1.00000,  -26.8205,  'MERKEL 1',  13.800,  27
3086,  2,  12.091,  -3.128,  0.000,  0.000,  3,  1.00724,  -23.4581,  'LORAINE ',  13.200,  27
3087,  2,  12.887,  -3.047,  0.000,  0.000,  3,  1.00795,  -22.7285,  'LORAINE ',  13.200,  27
3092,  2,  30.330,  3.308,  0.000,  0.000,  3,  1.04000,  -31.1350,  'ABILENE ',  13.800,  27
3095,  2,  18.191,  3.793,  0.000,  0.000,  3,  1.04000,  -26.0439,  'MERKEL 2',  18.000,  27
3098,  2,  7.697,  -0.433,  0.000,  0.000,  3,  1.04000,  -24.7537,  'FLUVANNA',  13.800,  27
3106,  3,  3.102,  -5.622,  0.000,  0.000,  3,  1.00000,  -55.7598,  'BUCHANAN',  13.200,  28
3110,  2,  8.378,  -1.325,  0.000,  0.000,  3,  1.04000,  -25.2684,  'FLUVANNA',  13.800,  27
3112,  2,  10.714,  -4.586,  0.000,  0.000,  3,  1.01301,  -25.3726,  'STERLING',  18.000,  27
3113,  2,  10.714,  -4.586,  0.000,  0.000,  3,  1.01301,  -25.3726,  'STERLING',  18.000,  27
3118,  2,  18.977,  -6.599,  0.000,  0.000,  3,  1.00409,  -22.5236,  'SYNDER 2',  13.800,  27
3122,  2,  15.412,  -2.206,  0.000,  0.000,  3,  1.00000,  -20.7213,  'ROSCOE 1',  18.000,  27
3127,  2,  10.731,  -3.683,  0.000,  0.000,  3,  1.02064,  -25.7880,  'SWEETWAT',  115.00,  27
3129,  2,  21.855,  -30.133,  0.000,  0.000,  3,  1.02609,  -25.9260,  'ROSCOE 3',  115.00,  27
3131,  2,  111.587,  -19.878,  0.000,  0.000,  3,  1.02017,  -29.0005,  'TUSOCOLA',  115.00,  27
3137,  2,  91.930,  -17.644,  0.000,  0.000,  3,  1.03000,  -29.6277,  'SWEETWAT',  115.00,  27
3141,  2,  43.350,  -12.588,  0.000,  0.000,  3,  1.02254,  -26.6950,  'SWEETWAT',  115.00,  27
4010,  2,  39.534,  -6.393,  0.000,  0.000,  4,  1.03000,  -76.0989,  'SARITA 3',  20.000,  21
4026,  2,  148.123,  -13.074,  0.000,  0.000,  4,  1.03000,  -58.5531,  'CHRISTIN',  13.800,  20
4030,  3,  157.160,  -28.027,  0.000,  0.000,  4,  1.01000,  -53.8731,  'FANNIN 2',  13.800,  21
4050,  2,  20.090,  -7.808,  0.000,  0.000,  4,  1.01043,  -86.5981,  'SEBASTIA',  13.800,  19
4058,  2,  23.842,  1.643,  0.000,  0.000,  4,  1.03000,  -69.3003,  'GREGORY ',  13.800,  21
4059,  2,  27.885,  1.408,  0.000,  0.000,  4,  1.03000,  -69.5120,  'GREGORY ',  13.800,  21
4060,  2,  19.908,  1.137,  0.000,  0.000,  4,  1.03000,  -68.6957,  'GREGORY ',  13.800,  21
4061,  2,  24.514,  1.680,  0.000,  0.000,  4,  1.03000,  -69.0568,  'GREGORY ',  13.800,  21
4062,  2,  23.398,  1.001,  0.000,  0.000,  4,  1.03000,  -68.6555,  'GREGORY ',  13.800,  21
4063,  2,  24.126,  1.964,  0.000,  0.000,  4,  1.03000,  -69.0282,  'GREGORY ',  13.800,  21
4082,  2,  20.364,  -0.586,  0.000,  0.000,  4,  1.04000,  -74.3852,  'CORPUS C',  13.800,  21
4083,  2,  21.756,  -0.661,  0.000,  0.000,  4,  1.04000,  -74.5399,  'CORPUS C',  13.800,  21
4084,  2,  29.192,  -4.228,  0.000,  0.000,  4,  1.04000,  -75.3611,  'CORPUS C',  13.800,  21
4085,  2,  37.976,  -5.846,  0.000,  0.000,  4,  1.04000,  -75.1269,  'CORPUS C',  13.800,  21
4105,  2,  83.593,  3.024,  0.000,  0.000,  4,  1.01000,  -71.7723,  'TAFT 2 1',  18.000,  21
4115,  2,  90.755,  -0.380,  0.000,  0.000,  4,  1.04000,  -73.3349,  'LAREDO 1',  13.800,  20
4116,  2,  86.383,  -1.141,  0.000,  0.000,  4,  1.04000,  -73.2812,  'LAREDO 1',  13.800,  20
4142,  2,  88.546,  -9.749,  0.000,  0.000,  4,  1.04000,  -76.3843,  'SARITA 1',  13.800,  21
4153,  2,  226.923,  -27.716,  0.000,  0.000,  4,  1.04000,  -78.1956,  'ARMSTRON',  18.000,  21
4160,  2,  77.963,  7.105,  0.000,  0.000,  4,  1.03000,  -71.7474,  'CORPUS C',  13.800,  21
4161,  2,  40.734,  3.600,  0.000,  0.000,  4,  1.03000,  -70.6180,  'CORPUS C',  13.800,  21
4162,  2,  41.166,  2.776,  0.000,  0.000,  4,  1.03000,  -70.6405,  'CORPUS C',  13.800,  21
4166,  2,  31.652,  -5.636,  0.000,  0.000,  4,  1.01450,  -75.3340,  'SARITA 2',  13.800,  21
4177,  2,  65.503,  -3.231,  0.000,  0.000,  4,  1.04000,  -71.6243,  'BRUNI 1 ',  13.800,  20
4181,  2,  130.054,  -16.625,  0.000,  0.000,  4,  1.02615,  -69.9241,  'TAFT 1 0',  230.00,  21
4183,  2,  275.132,  -36.664,  0.000,  0.000,  4,  1.02775,  -81.2361,  'SAN PERL',  230.00,  19
4192,  2,  680.592,  4.258,  0.000,  0.000,  4,  1.02000,  -84.0119,  'BROWNSVI',  230.00,  19
4194,  2,  618.677,  -92.098,  0.000,  0.000,  4,  1.02000,  -88.8136,  'SEBASTIA',  115.00,  19
4195,  2,  404.791,  -131.292,  0.000,  0.000,  4,  1.02917,  -69.1112,  'OILTON 0',  500.00,  20
5020,  2,  46.371,  -22.935,  0.000,  0.000,  5,  1.03318,  -39.4048,  'JACKSBOR',  13.800,  12
5037,  2,  181.639,  -15.837,  0.000,  0.000,  5,  1.02696,  -42.3847,  'DALLAS 1',  13.200,  16
5038,  2,  175.852,  -14.965,  0.000,  0.000,  5,  1.02678,  -42.3471,  'DALLAS 1',  13.200,  16
5039,  2,  412.262,  -39.865,  0.000,  0.000,  5,  1.02923,  -43.0302,  'DALLAS 1',  13.200,  16
5040,  2,  136.179,  -12.029,  0.000,  0.000,  5,  1.02562,  -41.9661,  'DALLAS 1',  13.200,  16
5041,  2,  193.830,  -18.086,  0.000,  0.000,  5,  1.02734,  -42.4557,  'DALLAS 1',  13.200,  16
5042,  2,  163.820,  -13.821,  0.000,  0.000,  5,  1.02644,  -42.2594,  'DALLAS 1',  13.200,  16
5057,  2,  79.879,  -42.041,  0.000,  0.000,  5,  1.03255,  -39.8331,  'GRAHAM 2',  13.800,  12
5058,  2,  56.343,  -28.824,  0.000,  0.000,  5,  1.03047,  -39.5219,  'GRAHAM 3',  13.800,  12
5067,  2,  262.835,  -30.890,  0.000,  0.000,  5,  1.03000,  -42.7073,  'ARLINGTO',  13.800,  17
5068,  2,  250.336,  -30.458,  0.000,  0.000,  5,  1.03000,  -42.6680,  'ARLINGTO',  13.800,  17
5069,  2,  235.145,  -28.385,  0.000,  0.000,  5,  1.03000,  -42.6165,  'ARLINGTO',  13.800,  17
5166,  2,  124.649,  -24.840,  0.000,  0.000,  5,  1.04000,  -43.1214,  'DENTON 1',  13.800,  17
5198,  2,  96.664,  -42.230,  0.000,  0.000,  5,  1.03429,  -40.6352,  'BRYSON 1',  18.000,  12
5206,  2,  72.635,  -21.971,  0.000,  0.000,  5,  1.03035,  -41.0758,  'POOLVILL',  13.800,  12
5207,  2,  133.379,  -41.216,  0.000,  0.000,  5,  1.03277,  -41.4467,  'POOLVILL',  13.800,  12
5208,  2,  107.437,  -32.612,  0.000,  0.000,  5,  1.03203,  -41.3360,  'POOLVILL',  13.800,  12
5238,  2,  94.073,  -94.680,  0.000,  0.000,  5,  1.03490,  -39.0838,  'OLNEY 1 ',  18.000,  12
5243,  2,  112.282,  -41.343,  0.000,  0.000,  5,  1.03565,  -46.7860,  'GOLDTHWA',  13.800,  18
5262,  2,  254.475,  -36.919,  0.000,  0.000,  5,  1.02395,  -35.3686,  'GLEN ROS',  13.800,  18
5263,  2,  333.223,  -55.284,  0.000,  0.000,  5,  1.02659,  -36.5735,  'GLEN ROS',  13.800,  18
5281,  2,  106.207,  -21.651,  0.000,  0.000,  5,  1.02523,  -47.7294,  'TEMPLE 1',  13.800,  13
5282,  2,  122.457,  -25.921,  0.000,  0.000,  5,  1.02615,  -47.8628,  'TEMPLE 1',  13.800,  13
5283,  2,  163.732,  -35.758,  0.000,  0.000,  5,  1.02738,  -48.0336,  'TEMPLE 1',  13.800,  13
5302,  2,  184.031,  -22.010,  0.000,  0.000,  5,  1.04000,  -42.5949,  'MCKINNEY',  13.800,  16
5303,  2,  242.142,  -30.229,  0.000,  0.000,  5,  1.04000,  -42.9256,  'MCKINNEY',  13.800,  16
5319,  2,  133.681,  -19.527,  0.000,  0.000,  5,  1.02552,  -40.3008,  'GRANBURY',  13.200,  18
5320,  2,  126.470,  -19.348,  0.000,  0.000,  5,  1.02510,  -40.2120,  'GRANBURY',  13.200,  18
5321,  2,  139.466,  -20.609,  0.000,  0.000,  5,  1.02578,  -40.3357,  'GRANBURY',  13.200,  18
5324,  2,  148.258,  -8.136,  0.000,  0.000,  5,  1.04000,  -41.9865,  'DALLAS 2',  13.800,  17
5325,  2,  148.278,  -7.054,  0.000,  0.000,  5,  1.04000,  -41.9837,  'DALLAS 2',  13.800,  17
5326,  2,  431.897,  -46.432,  0.000,  0.000,  5,  1.04000,  -43.1785,  'DALLAS 2',  13.800,  17
5360,  3,  127.498,  -38.328,  0.000,  0.000,  5,  1.01000,  -44.3357,  'RIESEL 1',  13.800,  13
5364,  2,  139.441,  -33.903,  0.000,  0.000,  5,  1.03164,  -41.7405,  'BRIDGEPO',  13.800,  12
5365,  2,  67.342,  -15.243,  0.000,  0.000,  5,  1.02930,  -41.3850,  'BRIDGEPO',  13.800,  12
5366,  2,  57.295,  -13.478,  0.000,  0.000,  5,  1.02872,  -41.2896,  'BRIDGEPO',  13.800,  12
5367,  2,  58.539,  -13.728,  0.000,  0.000,  5,  1.02884,  -41.3134,  'BRIDGEPO',  13.800,  12
5368,  2,  91.751,  -22.210,  0.000,  0.000,  5,  1.03051,  -41.5667,  'BRIDGEPO',  13.800,  12
5369,  2,  55.054,  -12.881,  0.000,  0.000,  5,  1.02846,  -41.2484,  'BRIDGEPO',  13.800,  12
5382,  2,  137.317,  -17.846,  0.000,  0.000,  5,  1.04000,  -43.7443,  'ENNIS 2 ',  13.800,  14
5383,  2,  117.197,  -14.265,  0.000,  0.000,  5,  1.04000,  -43.6773,  'ENNIS 3 ',  13.800,  14
5399,  2,  69.902,  -49.194,  0.000,  0.000,  5,  1.04264,  -37.2154,  'ALBANY 1',  13.800,  15
5415,  2,  61.964,  -20.538,  0.000,  0.000,  5,  1.03591,  -40.4164,  'PALO PIN',  13.800,  12
5416,  2,  61.365,  -20.148,  0.000,  0.000,  5,  1.03583,  -40.4100,  'PALO PIN',  13.800,  12
5417,  2,  69.599,  -23.035,  0.000,  0.000,  5,  1.03631,  -40.4853,  'PALO PIN',  13.800,  12
5444,  2,  931.140,  -218.494,  0.000,  0.000,  5,  1.02804,  -42.2740,  'MIDLOTHI',  500.00,  17
6006,  2,  52.208,  -9.924,  0.000,  0.000,  6,  1.04000,  -51.9111,  'BASTROP ',  13.800,  25
6007,  2,  81.758,  -16.569,  0.000,  0.000,  6,  1.04000,  -51.7885,  'BASTROP ',  13.800,  25
6008,  2,  38.521,  -7.162,  0.000,  0.000,  6,  1.04000,  -51.8753,  'BASTROP ',  13.800,  25
6009,  2,  22.065,  -2.682,  0.000,  0.000,  6,  1.04000,  -51.5681,  'BASTROP ',  13.800,  25
6010,  2,  35.639,  -6.121,  0.000,  0.000,  6,  1.04000,  -51.8006,  'BASTROP ',  13.800,  25
6062,  1,  170.420,  -45.325,  0.000,  0.000,  6,  1.02738,  -58.9741,  'BRENHAM ',  500.00,  25
6069,  2,  101.459,  -16.367,  0.000,  0.000,  6,  1.03000,  -55.4050,  'MARION 1',  18.000,  22
6070,  2,  44.168,  -6.827,  0.000,  0.000,  6,  1.03000,  -54.8984,  'MARION 1',  18.000,  22
6071,  2,  130.931,  -20.398,  0.000,  0.000,  6,  1.03033,  -55.4796,  'MARION 1',  18.000,  22
6072,  2,  53.930,  -7.778,  0.000,  0.000,  6,  1.03000,  -55.0529,  'MARION 1',  18.000,  22
6073,  2,  81.555,  -12.267,  0.000,  0.000,  6,  1.03000,  -55.2877,  'MARION 1',  18.000,  22
6074,  2,  82.163,  -12.903,  0.000,  0.000,  6,  1.03000,  -55.2910,  'MARION 1',  18.000,  22
6078,  2,  19.686,  -25.149,  0.000,  0.000,  6,  1.01613,  -55.1456,  'LA GRANG',  22.000,  25
6079,  2,  48.336,  -49.256,  0.000,  0.000,  6,  1.02038,  -55.7296,  'LA GRANG',  22.000,  25
6080,  2,  32.238,  -36.942,  0.000,  0.000,  6,  1.01899,  -55.5453,  'LA GRANG',  22.000,  25
6110,  2,  137.368,  -24.460,  0.000,  0.000,  6,  1.04000,  -49.6863,  'ROCKDALE',  13.800,  25
6111,  2,  135.001,  -24.390,  0.000,  0.000,  6,  1.04000,  -49.5751,  'ROCKDALE',  13.800,  25
6145,  2,  91.932,  -6.757,  0.000,  0.000,  6,  1.03000,  -54.9059,  'SAN ANTO',  13.800,  22
6146,  2,  95.334,  -6.972,  0.000,  0.000,  6,  1.03000,  -54.9536,  'SAN ANTO',  13.800,  22
6147,  3,  117.786,  -3.812,  0.000,  0.000,  6,  1.03000,  -52.4403,  'SAN ANTO',  13.800,  22
6148,  2,  180.195,  -14.279,  0.000,  0.000,  6,  1.03000,  -55.1283,  'SAN ANTO',  13.800,  22
6149,  2,  356.870,  -30.308,  0.000,  0.000,  6,  1.03000,  -55.6427,  'SAN ANTO',  13.800,  22
6164,  2,  65.624,  -13.659,  0.000,  0.000,  6,  1.03000,  -54.9141,  'SEGUIN 1',  13.800,  22
6165,  2,  64.238,  -12.556,  0.000,  0.000,  6,  1.03000,  -54.8416,  'SEGUIN 1',  13.800,  22
6166,  2,  137.290,  -30.103,  0.000,  0.000,  6,  1.03000,  -55.2475,  'SEGUIN 1',  13.800,  22
6167,  2,  74.260,  -15.918,  0.000,  0.000,  6,  1.03000,  -54.9920,  'SEGUIN 1',  13.800,  22
6188,  1,  139.526,  -24.899,  0.000,  0.000,  6,  1.01725,  -58.0415,  'COLUMBUS',  230.00,  25
6195,  1,  20.322,  0.418,  0.000,  0.000,  6,  1.00688,  -63.1770,  'INDUSTRY',  115.00,  25
6243,  2,  53.192,  -13.085,  0.000,  0.000,  6,  1.04000,  -56.0674,  'ELMENDOR',  13.800,  22
6244,  2,  64.773,  -16.528,  0.000,  0.000,  6,  1.04000,  -55.8543,  'ELMENDOR',  13.800,  22
6245,  2,  77.002,  -20.349,  0.000,  0.000,  6,  1.04000,  -55.9750,  'ELMENDOR',  13.800,  22
6246,  2,  152.306,  -41.946,  0.000,  0.000,  6,  1.04000,  -56.2942,  'ELMENDOR',  13.800,  22
6247,  2,  124.612,  -34.632,  0.000,  0.000,  6,  1.04000,  -56.3787,  'ELMENDOR',  13.800,  22
6248,  2,  59.511,  -15.087,  0.000,  0.000,  6,  1.04000,  -56.1201,  'ELMENDOR',  13.800,  22
6249,  2,  40.307,  -9.290,  0.000,  0.000,  6,  1.04000,  -55.8927,  'ELMENDOR',  13.800,  22
6257,  2,  81.201,  -3.285,  0.000,  0.000,  6,  1.03394,  -53.4225,  'AUSTIN 2',  13.800,  23
6258,  2,  42.177,  -1.307,  0.000,  0.000,  6,  1.03186,  -53.0948,  'AUSTIN 2',  13.800,  23
6260,  2,  89.580,  -4.481,  0.000,  0.000,  6,  1.03353,  -53.3499,  'AUSTIN 2',  13.800,  23
6295,  2,  96.334,  -13.624,  0.000,  0.000,  6,  1.03493,  -53.1216,  'CEDAR CR',  13.800,  23
6296,  2,  110.867,  -16.803,  0.000,  0.000,  6,  1.03519,  -53.1651,  'CEDAR CR',  13.800,  23
6297,  2,  45.510,  -4.751,  0.000,  0.000,  6,  1.03230,  -52.7255,  'CEDAR CR',  13.800,  23
6302,  2,  55.806,  -8.223,  0.000,  0.000,  6,  1.02407,  -54.8014,  'NEW BRAU',  22.000,  22
6303,  2,  161.586,  -19.092,  0.000,  0.000,  6,  1.02787,  -55.3813,  'NEW BRAU',  22.000,  22
6304,  2,  68.364,  -8.722,  0.000,  0.000,  6,  1.02501,  -54.9420,  'NEW BRAU',  22.000,  22
6305,  2,  55.577,  -8.671,  0.000,  0.000,  6,  1.02406,  -54.7897,  'NEW BRAU',  22.000,  22
6341,  1,  57.511,  -6.948,  0.000,  0.000,  6,  1.01991,  -65.0167,  'CHAPPELL',  115.00,  25
6349,  2,  1075.027,  -183.031,  0.000,  0.000,  6,  1.04000,  -54.2022,  'AUSTIN 1',  500.00,  23
...
 0 /End of Bus data, Begin Generator data
1004,  '1',  84.938,  -30.380,  44.940,  -30.380,  1.01000,  0,  253.200,  0.00000,  1.00000,  0.00000,  0.00000,  1.00000,  1,  100.0,  211.000,  63.300
1009,  '1',  33.208,  -11.880,  17.570,  -11.880,  1.00000,  0,  99.000,  0.00000,  1.00000,  0.00000,  0.00000,  1.00000,  1,  100.0,  82.500,  24.750
1021,  '1',  80.311,  -28.730,  42.490,  -28.730,  1.00000,  0,  239.400,  0.00000,  1.00000,  0.00000,  0.00000,  1.00000,  1,  100.0,  199.500,  59.850
1023,  '1',  72.459,  -14.260,  38.340,  -25.920,  1.01000,  0,  216.000,  0.00000,  1.00000,  0.00000,  0.00000,  1.00000,  1,  100.0,  180.000,  54.000
1026,  '1',  49.996,  -17.880,  26.450,  -17.880,  1.00000,  0,  149.040,  0.00000,  1.00000,  0.00000,  0.00000,  1.00000,  1,  100.0,  124.200,  37.260
1033,  '1',  111.908,  -40.030,  59.210,  -40.030,  1.00000,  0,  333.600,  0.00000,  1.00000,  0.00000,  0.00000,  1.00000,  1,  100.0,  278.000,  83.400
1035,  '1',  36.229,  -12.960,  19.170,  -12.960,  1.00000,  0,  108.000,  0.00000,  1.00000,  0.00000,  0.00000,  1.00000,  1,  100.0,  90.000,  27.000
1039,  '1',  59.378,  -21.240,  31.420,  -21.240,  1.00000,  0,  177.000,  0.00000,  1.00000,  0.00000,  0.00000,  1.00000,  1,  100.0,  147.500,  44.250
1042,  '1',  65.427,  -10.795,  25.960,  -17.550,  1.00000,  0,  146.280,  0.00000,  1.00000,  0.00000,  0.00000,  1.00000,  1,  100.0,  121.900,  36.570
1048,  '1',  97.560,  -17.228,  165.530,  -36.100,  1.00000,  0,  390.240,  0.00000,  0.10170,  0.00000,  0.00000,  1.00000,  1,  100.0,  325.200,  97.560
1049,  '1',  97.560,  -5.305,  165.530,  -36.100,  1.00000,  0,  390.240,  0.00000,  0.13490,  0.00000,  0.00000,  1.00000,  1,  100.0,  325.200,  97.560
1053,  '1',  53.640,  -19.850,  91.010,  -19.850,  1.00000,  0,  214.560,  0.00000,  0.16870,  0.00000,  0.00000,  1.00000,  1,  100.0,  178.800,  53.640
1057,  '1',  64.408,  -17.280,  25.560,  -17.280,  1.00000,  0,  144.000,  0.00000,  1.00000,  0.00000,  0.00000,  1.00000,  1,  100.0,  120.000,  36.000
1066,  '1',  57.366,  -11.000,  30.350,  -20.520,  1.00000,  0,  171.000,  0.00000,  1.00000,  0.00000,  0.00000,  1.00000,  1,  100.0,  142.500,  42.750
1070,  '1',  64.612,  18.786,  34.190,  -23.110,  1.04000,  0,  192.600,  0.00000,  1.00000,  0.00000,  0.00000,  1.00000,  1,  100.0,  160.500,  48.150
1072,  '1',  -97.072,  0.642,  97.800,  -21.330,  1.01000,  0,  230.560,  0.00000,  0.30820,  0.00000,  0.00000,  1.00000,  1,  100.0,  192.130,  57.640
1073,  '1',  57.640,  -9.699,  97.800,  -21.330,  1.01000,  0,  230.560,  0.00000,  0.19480,  0.00000,  0.00000,  1.00000,  1,  100.0,  192.130,  57.640
1074,  '1',  57.640,  -7.003,  97.800,  -21.330,  1.01000,  0,  230.560,  0.00000,  0.20960,  0.00000,  0.00000,  1.00000,  1,  100.0,  192.130,  57.640
1075,  '1',  57.640,  -8.497,  97.800,  -21.330,  1.01000,  0,  230.560,  0.00000,  0.12370,  0.00000,  0.00000,  1.00000,  1,  100.0,  192.130,  57.640
1076,  '1',  57.640,  -16.927,  97.800,  -21.330,  1.01000,  0,  230.560,  0.00000,  0.10660,  0.00000,  0.00000,  1.00000,  1,  100.0,  192.130,  57.640
1077,  '1',  57.640,  -7.684,  97.800,  -21.330,  1.01000,  0,  230.560,  0.00000,  0.15380,  0.00000,  0.00000,  1.00000,  1,  100.0,  192.130,  57.640
1081,  '1',  85.950,  -22.159,  145.830,  -31.800,  1.01000,  0,  343.800,  0.00000,  0.14960,  0.00000,  0.00000,  1.00000,  1,  100.0,  286.500,  85.950
1082,  '1',  60.382,  -21.600,  31.950,  -21.600,  1.00000,  0,  180.000,  0.00000,  1.00000,  0.00000,  0.00000,  1.00000,  1,  100.0,  150.000,  45.000
1084,  '1',  46.492,  24.600,  24.600,  -16.630,  1.04000,  0,  138.600,  0.00000,  1.00000,  0.00000,  0.00000,  1.00000,  1,  100.0,  115.500,  34.650
1088,  '1',  30.191,  -8.048,  15.970,  -10.800,  1.00000,  0,  90.000,  0.00000,  1.00000,  0.00000,  0.00000,  1.00000,  1,  100.0,  75.000,  22.500
2004,  '1',  117.540,  -43.490,  199.430,  -43.490,  1.02000,  0,  470.160,  0.00000,  0.10640,  0.00000,  0.00000,  1.00000,  1,  100.0,  391.800,  117.540
2005,  '1',  117.540,  -43.490,  199.430,  -43.490,  1.02000,  0,  470.160,  0.00000,  0.22750,  0.00000,  0.00000,  1.00000,  1,  100.0,  391.800,  117.540
2006,  '1',  117.540,  -43.490,  199.430,  -43.490,  1.02000,  0,  470.160,  0.00000,  0.20040,  0.00000,  0.00000,  1.00000,  1,  100.0,  391.800,  117.540
2013,  '1',  70.234,  -28.890,  42.730,  -28.890,  1.00000,  0,  240.720,  0.00000,  1.00000,  0.00000,  0.00000,  1.00000,  1,  100.0,  200.600,  60.180
2024,  '1',  50.000,  -18.500,  84.830,  -18.500,  1.02000,  0,  200.000,  0.00000,  0.15080,  0.00000,  0.00000,  1.00000,  1,  100.0,  166.670,  50.000
2057,  '1',  -21.350,  -252.758,  335.520,  -87.840,  0.99000,  0,  864.000,  0.00000,  0.17700,  0.00000,  0.00000,  1.00000,  1,  100.0,  720.000,  216.000
2062,  '1',  60.035,  -18.706,  28.840,  -19.500,  1.02000,  0,  162.480,  0.00000,  1.00000,  0.00000,  0.00000,  1.00000,  1,  100.0,  135.400,  40.620
2071,  '1',  63.245,  -21.600,  31.950,  -21.600,  1.00000,  0,  180.000,  0.00000,  1.00000,  0.00000,  0.00000,  1.00000,  1,  100.0,  150.000,  45.000
2078,  '1',  47.436,  -13.341,  23.960,  -16.200,  1.02000,  0,  135.000,  0.00000,  1.00000,  0.00000,  0.00000,  1.00000,  1,  100.0,  112.500,  33.750
2095,  '1',  34.128,  -11.450,  16.930,  -11.450,  1.00000,  0,  95.400,  0.00000,  1.00000,  0.00000,  0.00000,  1.00000,  1,  100.0,  79.500,  23.850
2115,  '1',  55.410,  -20.500,  94.020,  -20.500,  1.00000,  0,  221.660,  0.00000,  0.14250,  0.00000,  0.00000,  1.00000,  1,  100.0,  184.720,  55.410
2116,  '1',  55.410,  -20.500,  94.020,  -20.500,  1.00000,  0,  221.660,  0.00000,  0.18690,  0.00000,  0.00000,  1.00000,  1,  100.0,  184.720,  55.410
2117,  '1',  55.410,  -20.500,  94.020,  -20.500,  1.00000,  0,  221.660,  0.00000,  0.32540,  0.00000,  0.00000,  1.00000,  1,  100.0,  184.720,  55.410
2118,  '1',  55.410,  -20.500,  94.020,  -20.500,  1.00000,  0,  221.660,  0.00000,  0.10610,  0.00000,  0.00000,  1.00000,  1,  100.0,  184.720,  55.410
2119,  '1',  55.410,  -20.500,  94.020,  -20.500,  1.00000,  0,  221.660,  0.00000,  0.13600,  0.00000,  0.00000,  1.00000,  1,  100.0,  184.720,  55.410
2120,  '1',  55.410,  -20.500,  94.020,  -20.500,  1.01000,  0,  221.660,  0.00000,  0.20680,  0.00000,  0.00000,  1.00000,  1,  100.0,  184.720,  55.410
2127,  '1',  40.876,  -41.560,  61.470,  -41.560,  1.04000,  0,  346.320,  0.00000,  1.00000,  0.00000,  0.00000,  1.00000,  1,  100.0,  288.600,  86.580
3017,  '1',  68.235,  -12.667,  36.100,  -24.410,  1.01000,  0,  203.400,  0.00000,  1.00000,  0.00000,  0.00000,  1.00000,  1,  100.0,  169.500,  50.850
3020,  '1',  60.382,  -0.455,  31.950,  -21.600,  1.03000,  0,  180.000,  0.00000,  1.00000,  0.00000,  0.00000,  1.00000,  1,  100.0,  150.000,  45.000
3028,  '1',  84.326,  -1.101,  42.600,  -28.800,  1.04000,  0,  240.000,  0.00000,  1.00000,  0.00000,  0.00000,  1.00000,  1,  100.0,  200.000,  60.000
3034,  '1',  52.530,  2.168,  27.800,  -18.790,  1.03000,  0,  156.600,  0.00000,  1.00000,  0.00000,  0.00000,  1.00000,  1,  100.0,  130.500,  39.150
3039,  '1',  84.132,  8.024,  44.520,  -30.100,  1.04000,  0,  250.800,  0.00000,  1.00000,  0.00000,  0.00000,  1.00000,  1,  100.0,  209.000,  62.700
3045,  '1',  134.100,  5.248,  227.520,  -49.620,  1.04000,  0,  536.400,  0.00000,  0.14470,  0.00000,  0.00000,  1.00000,  1,  100.0,  447.000,  134.100
3048,  '1',  97.014,  -34.700,  51.330,  -34.700,  1.04000,  0,  289.200,  0.00000,  1.00000,  0.00000,  0.00000,  1.00000,  1,  100.0,  241.000,  72.300
3055,  '1',  98.694,  6.461,  52.220,  -35.300,  1.04000,  0,  294.200,  0.00000,  1.00000,  0.00000,  0.00000,  1.00000,  1,  100.0,  245.170,  73.550
3056,  '1',  98.694,  4.624,  52.220,  -35.300,  1.04000,  0,  294.200,  0.00000,  1.00000,  0.00000,  0.00000,  1.00000,  1,  100.0,  245.170,  73.550
3057,  '1',  98.694,  3.645,  52.220,  -35.300,  1.04000,  0,  294.200,  0.00000,  1.00000,  0.00000,  0.00000,  1.00000,  1,  100.0,  245.170,  73.550
3060,  '1',  66.673,  3.047,  35.280,  -23.850,  1.04000,  0,  198.750,  0.00000,  1.00000,  0.00000,  0.00000,  1.00000,  1,  100.0,  165.630,  49.690
3061,  '1',  66.673,  3.253,  35.280,  -23.850,  1.04000,  0,  198.750,  0.00000,  1.00000,  0.00000,  0.00000,  1.00000,  1,  100.0,  165.630,  49.690
3062,  '1',  66.673,  4.242,  35.280,  -23.850,  1.04000,  0,  198.750,  0.00000,  1.00000,  0.00000,  0.00000,  1.00000,  1,  100.0,  165.630,  49.690
3063,  '1',  66.673,  3.090,  35.280,  -23.850,  1.04000,  0,  198.750,  0.00000,  1.00000,  0.00000,  0.00000,  1.00000,  1,  100.0,  165.630,  49.690
3065,  '1',  32.402,  -11.590,  17.150,  -11.590,  1.00000,  0,  96.600,  0.00000,  1.00000,  0.00000,  0.00000,  1.00000,  1,  100.0,  80.500,  24.150
3068,  '1',  60.382,  18.776,  31.950,  -21.600,  1.04000,  0,  180.000,  0.00000,  1.00000,  0.00000,  0.00000,  1.00000,  1,  100.0,  150.000,  45.000
3071,  '1',  68.514,  -24.510,  36.250,  -24.510,  1.00000,  0,  204.240,  0.00000,  1.00000,  0.00000,  0.00000,  1.00000,  1,  100.0,  170.200,  51.060
3074,  '1',  40.174,  -14.370,  21.260,  -14.370,  1.00000,  0,  119.760,  0.00000,  1.00000,  0.00000,  0.00000,  1.00000,  1,  100.0,  99.800,  29.940
3081,  '1',  100.234,  5.196,  53.040,  -35.860,  1.04000,  0,  298.800,  0.00000,  1.00000,  0.00000,  0.00000,  1.00000,  1,  100.0,  249.000,  74.700
3084,  '1',  93.590,  -31.330,  49.520,  -33.480,  1.00000,  0,  279.000,  0.00000,  1.00000,  0.00000,  0.00000,  1.00000,  1,  100.0,  232.500,  69.750
3086,  '1',  30.191,  -10.800,  15.970,  -10.800,  1.00000,  0,  90.000,  0.00000,  1.00000,  0.00000,  0.00000,  1.00000,  1,  100.0,  75.000,  22.500
3087,  '1',  40.255,  -10.800,  15.970,  -10.800,  1.00000,  0,  90.000,  0.00000,  1.00000,  0.00000,  0.00000,  1.00000,  1,  100.0,  75.000,  22.500
3092,  '1',  80.510,  4.093,  42.600,  -28.800,  1.04000,  0,  240.000,  0.00000,  1.00000,  0.00000,  0.00000,  1.00000,  1,  100.0,  200.000,  60.000
3095,  '1',  48.547,  5.797,  25.690,  -17.370,  1.04000,  0,  144.720,  0.00000,  1.00000,  0.00000,  0.00000,  1.00000,  1,  100.0,  120.600,  36.180
3098,  '1',  64.408,  5.552,  34.080,  -23.040,  1.04000,  0,  192.000,  0.00000,  1.00000,  0.00000,  0.00000,  1.00000,  1,  100.0,  160.000,  48.000
3106,  '1',  -2.676,  -11.943,  62.477,  -2.690,  1.00000,  0,  65.880,  0.00000,  0.29220,  0.00000,  0.00000,  1.00000,  1,  100.0,  162.800,  0.000
3110,  '1',  33.814,  4.223,  17.890,  -12.100,  1.04000,  0,  100.800,  0.00000,  1.00000,  0.00000,  0.00000,  1.00000,  1,  100.0,  84.000,  25.200
3112,  '1',  30.111,  -10.770,  15.930,  -10.770,  1.00000,  0,  89.760,  0.00000,  1.00000,  0.00000,  0.00000,  1.00000,  1,  100.0,  74.800,  22.440
3113,  '1',  30.111,  -10.770,  15.930,  -10.770,  1.00000,  0,  89.760,  0.00000,  1.00000,  0.00000,  0.00000,  1.00000,  1,  100.0,  74.800,  22.440
3118,  '1',  48.306,  -17.280,  25.560,  -17.280,  1.00000,  0,  144.000,  0.00000,  1.00000,  0.00000,  0.00000,  1.00000,  1,  100.0,  120.000,  36.000
3122,  '1',  79.302,  -21.204,  41.960,  -28.370,  1.00000,  0,  236.400,  0.00000,  1.00000,  0.00000,  0.00000,  1.00000,  1,  100.0,  197.000,  59.100
3127,  '1',  54.344,  -19.440,  28.760,  -19.440,  1.00000,  0,  162.000,  0.00000,  1.00000,  0.00000,  0.00000,  1.00000,  1,  100.0,  135.000,  40.500
3129,  '1',  50.925,  -18.220,  26.940,  -18.220,  1.00000,  0,  151.800,  0.00000,  1.00000,  0.00000,  0.00000,  1.00000,  1,  100.0,  126.500,  37.950
3131,  '1',  45.890,  -16.420,  24.280,  -16.420,  1.02000,  0,  136.800,  0.00000,  1.00000,  0.00000,  0.00000,  1.00000,  1,  100.0,  114.000,  34.200
3137,  '1',  40.738,  10.227,  21.560,  -14.570,  1.03000,  0,  121.440,  0.00000,  1.00000,  0.00000,  0.00000,  1.00000,  1,  100.0,  101.200,  30.360
3141,  '1',  36.830,  -13.180,  19.490,  -13.180,  1.00000,  0,  109.800,  0.00000,  1.00000,  0.00000,  0.00000,  1.00000,  1,  100.0,  91.500,  27.450
4010,  '1',  81.154,  1.756,  42.940,  -29.030,  1.03000,  0,  241.920,  0.00000,  1.00000,  0.00000,  0.00000,  1.00000,  1,  100.0,  201.600,  60.480
4026,  '1',  123.000,  -0.882,  191.060,  -50.020,  1.03000,  0,  492.000,  0.00000,  0.32770,  0.00000,  0.00000,  1.00000,  1,  100.0,  410.000,  123.000
4030,  '1',  291.210,  -63.914,  290.040,  -75.930,  1.01000,  0,  746.880,  0.00000,  0.27970,  0.00000,  0.00000,  1.00000,  1,  100.0,  622.400,  186.720
4050,  '1',  80.510,  -28.800,  42.600,  -28.800,  1.00000,  0,  240.000,  0.00000,  1.00000,  0.00000,  0.00000,  1.00000,  1,  100.0,  200.000,  60.000
4058,  '1',  43.200,  4.526,  73.300,  -15.980,  1.03000,  0,  172.800,  0.00000,  0.13700,  0.00000,  0.00000,  1.00000,  1,  100.0,  144.000,  43.200
4059,  '1',  43.200,  4.643,  73.300,  -15.980,  1.03000,  0,  172.800,  0.00000,  0.15140,  0.00000,  0.00000,  1.00000,  1,  100.0,  144.000,  43.200
4060,  '1',  43.200,  3.126,  73.300,  -15.980,  1.03000,  0,  172.800,  0.00000,  0.13940,  0.00000,  0.00000,  1.00000,  1,  100.0,  144.000,  43.200
4061,  '1',  51.700,  4.490,  87.720,  -19.130,  1.03000,  0,  206.800,  0.00000,  0.21560,  0.00000,  0.00000,  1.00000,  1,  100.0,  172.330,  51.700
4062,  '1',  51.700,  2.917,  87.720,  -19.130,  1.03000,  0,  206.800,  0.00000,  0.25930,  0.00000,  0.00000,  1.00000,  1,  100.0,  172.330,  51.700
4063,  '1',  51.700,  5.069,  87.720,  -19.130,  1.03000,  0,  206.800,  0.00000,  0.14410,  0.00000,  0.00000,  1.00000,  1,  100.0,  172.330,  51.700
4082,  '1',  73.020,  10.667,  123.890,  -27.020,  1.04000,  0,  292.080,  0.00000,  0.13810,  0.00000,  0.00000,  1.00000,  1,  100.0,  243.400,  73.020
4083,  '1',  73.020,  11.530,  123.890,  -27.020,  1.04000,  0,  292.080,  0.00000,  0.15700,  0.00000,  0.00000,  1.00000,  1,  100.0,  243.400,  73.020
4084,  '1',  73.020,  21.742,  123.890,  -27.020,  1.04000,  0,  292.080,  0.00000,  0.19110,  0.00000,  0.00000,  1.00000,  1,  100.0,  243.400,  73.020
4085,  '1',  105.600,  24.433,  179.170,  -39.070,  1.04000,  0,  422.400,  0.00000,  0.31920,  0.00000,  0.00000,  1.00000,  1,  100.0,  352.000,  105.600
4105,  '1',  75.894,  -18.832,  38.340,  -25.920,  1.01000,  0,  216.000,  0.00000,  1.00000,  0.00000,  0.00000,  1.00000,  1,  100.0,  180.000,  54.000
4115,  '1',  39.540,  21.649,  67.090,  -14.630,  1.04000,  0,  158.160,  0.00000,  0.11310,  0.00000,  0.00000,  1.00000,  1,  100.0,  131.800,  39.540
4116,  '1',  39.540,  20.191,  67.090,  -14.630,  1.04000,  0,  158.160,  0.00000,  0.15150,  0.00000,  0.00000,  1.00000,  1,  100.0,  131.800,  39.540
4142,  '1',  75.679,  16.382,  40.040,  -27.070,  1.04000,  0,  225.600,  0.00000,  1.00000,  0.00000,  0.00000,  1.00000,  1,  100.0,  188.000,  56.400
4153,  '1',  114.002,  32.605,  60.320,  -40.780,  1.04000,  0,  339.840,  0.00000,  1.00000,  0.00000,  0.00000,  1.00000,  1,  100.0,  283.200,  84.960
4160,  '1',  59.330,  14.279,  100.660,  -21.950,  1.03000,  0,  237.320,  0.00000,  0.18820,  0.00000,  0.00000,  1.00000,  1,  100.0,  197.770,  59.330
4161,  '1',  59.330,  6.308,  100.660,  -21.950,  1.03000,  0,  237.320,  0.00000,  0.12390,  0.00000,  0.00000,  1.00000,  1,  100.0,  197.770,  59.330
4162,  '1',  59.330,  5.137,  100.660,  -21.950,  1.03000,  0,  237.320,  0.00000,  0.17220,  0.00000,  0.00000,  1.00000,  1,  100.0,  197.770,  59.330
4166,  '1',  80.912,  -28.940,  42.810,  -28.940,  1.00000,  0,  241.200,  0.00000,  1.00000,  0.00000,  0.00000,  1.00000,  1,  100.0,  201.000,  60.300
4177,  '1',  60.382,  0.740,  31.950,  -21.600,  1.04000,  0,  180.000,  0.00000,  1.00000,  0.00000,  0.00000,  1.00000,  1,  100.0,  150.000,  45.000
4181,  '1',  84.366,  42.620,  42.620,  -28.810,  1.04000,  0,  240.120,  0.00000,  1.00000,  0.00000,  0.00000,  1.00000,  1,  100.0,  200.100,  60.030
4183,  '1',  81.717,  43.240,  43.240,  -29.230,  1.03000,  0,  243.600,  0.00000,  1.00000,  0.00000,  0.00000,  1.00000,  1,  100.0,  203.000,  60.900
4192,  '1',  405.690,  2.426,  688.320,  -150.120,  1.02000,  0,  1622.76,  0.00000,  0.14340,  0.00000,  0.00000,  1.00000,  1,  100.0,  1352.31,  405.690
4194,  '1',  81.154,  14.977,  42.940,  -29.030,  1.02000,  0,  241.920,  0.00000,  1.00000,  0.00000,  0.00000,  1.00000,  1,  100.0,  201.600,  60.480
4195,  '1',  37.034,  -13.250,  19.600,  -13.250,  1.00000,  0,  110.400,  0.00000,  1.00000,  0.00000,  0.00000,  1.00000,  1,  100.0,  92.000,  27.600
5020,  '1',  50.596,  -17.280,  25.560,  -17.280,  1.00000,  0,  144.000,  0.00000,  1.00000,  0.00000,  0.00000,  1.00000,  1,  100.0,  120.000,  36.000
5037,  '1',  178.910,  -34.240,  157.010,  -34.240,  1.02000,  0,  370.160,  0.00000,  0.29910,  0.00000,  0.00000,  1.00000,  1,  100.0,  308.470,  92.540
5038,  '1',  178.910,  -34.240,  157.010,  -34.240,  1.02000,  0,  370.160,  0.00000,  0.12330,  0.00000,  0.00000,  1.00000,  1,  100.0,  308.470,  92.540
5039,  '1',  178.910,  -34.240,  157.010,  -34.240,  1.02000,  0,  370.160,  0.00000,  0.21470,  0.00000,  0.00000,  1.00000,  1,  100.0,  308.470,  92.540
5040,  '1',  178.910,  -34.240,  157.010,  -34.240,  1.02000,  0,  370.160,  0.00000,  0.19240,  0.00000,  0.00000,  1.00000,  1,  100.0,  308.470,  92.540
5041,  '1',  178.910,  -34.240,  157.010,  -34.240,  1.02000,  0,  370.160,  0.00000,  0.11590,  0.00000,  0.00000,  1.00000,  1,  100.0,  308.470,  92.540
5042,  '1',  178.910,  -34.240,  157.010,  -34.240,  1.02000,  0,  370.160,  0.00000,  0.19130,  0.00000,  0.00000,  1.00000,  1,  100.0,  308.470,  92.540
5057,  '1',  95.200,  -35.230,  161.530,  -35.230,  1.00000,  0,  380.820,  0.00000,  0.19130,  0.00000,  0.00000,  1.00000,  1,  100.0,  317.350,  95.200
5058,  '1',  95.200,  -35.230,  161.530,  -35.230,  1.00000,  0,  380.820,  0.00000,  0.29820,  0.00000,  0.00000,  1.00000,  1,  100.0,  317.350,  95.200
5067,  '1',  131.480,  -36.507,  223.080,  -48.650,  1.03000,  0,  525.920,  0.00000,  0.32610,  0.00000,  0.00000,  1.00000,  1,  100.0,  438.270,  131.480
5068,  '1',  131.480,  -35.371,  223.080,  -48.650,  1.03000,  0,  525.920,  0.00000,  0.11690,  0.00000,  0.00000,  1.00000,  1,  100.0,  438.270,  131.480
5069,  '1',  131.480,  -33.574,  223.080,  -48.650,  1.03000,  0,  525.920,  0.00000,  0.10560,  0.00000,  0.00000,  1.00000,  1,  100.0,  438.270,  131.480
5166,  '1',  37.950,  5.962,  64.390,  -14.040,  1.04000,  0,  151.800,  0.00000,  0.13910,  0.00000,  0.00000,  1.00000,  1,  100.0,  126.500,  37.950
5198,  '1',  63.245,  -21.600,  31.950,  -21.600,  1.00000,  0,  180.000,  0.00000,  1.00000,  0.00000,  0.00000,  1.00000,  1,  100.0,  150.000,  45.000
5206,  '1',  74.600,  -27.600,  126.570,  -27.600,  1.01000,  0,  298.400,  0.00000,  0.11980,  0.00000,  0.00000,  1.00000,  1,  100.0,  248.670,  74.600
5207,  '1',  74.600,  -27.600,  126.570,  -27.600,  1.01000,  0,  298.400,  0.00000,  0.18090,  0.00000,  0.00000,  1.00000,  1,  100.0,  248.670,  74.600
5208,  '1',  74.600,  -27.600,  126.570,  -27.600,  1.01000,  0,  298.400,  0.00000,  0.10560,  0.00000,  0.00000,  1.00000,  1,  100.0,  248.670,  74.600
5238,  '1',  94.867,  -32.400,  47.930,  -32.400,  1.00000,  0,  270.000,  0.00000,  1.00000,  0.00000,  0.00000,  1.00000,  1,  100.0,  225.000,  67.500
5243,  '1',  63.245,  -21.600,  31.950,  -21.600,  1.00000,  0,  180.000,  0.00000,  1.00000,  0.00000,  0.00000,  1.00000,  1,  100.0,  150.000,  45.000
5262,  '1',  1215.000,  -99.630,  447.120,  -99.630,  1.01000,  0,  1458.00,  0.00000,  0.26310,  0.00000,  0.00000,  1.00000,  1,  100.0,  1215.00,  364.500
5263,  '1',  1215.000,  -99.630,  447.120,  -99.630,  1.01000,  0,  1458.00,  0.00000,  0.16260,  0.00000,  0.00000,  1.00000,  1,  100.0,  1215.00,  364.500
5281,  '1',  80.320,  -29.720,  136.280,  -29.720,  1.00000,  0,  321.280,  0.00000,  0.10660,  0.00000,  0.00000,  1.00000,  1,  100.0,  267.730,  80.320
5282,  '1',  80.320,  -29.720,  136.280,  -29.720,  1.00000,  0,  321.280,  0.00000,  0.23940,  0.00000,  0.00000,  1.00000,  1,  100.0,  267.730,  80.320
5283,  '1',  80.320,  -29.720,  136.280,  -29.720,  1.00000,  0,  321.280,  0.00000,  0.10650,  0.00000,  0.00000,  1.00000,  1,  100.0,  267.730,  80.320
5302,  '1',  139.130,  25.044,  236.050,  -51.480,  1.04000,  0,  556.500,  0.00000,  0.13300,  0.00000,  0.00000,  1.00000,  1,  100.0,  463.750,  139.130
5303,  '1',  139.130,  34.014,  236.050,  -51.480,  1.04000,  0,  556.500,  0.00000,  0.17920,  0.00000,  0.00000,  1.00000,  1,  100.0,  463.750,  139.130
5319,  '1',  78.840,  -29.170,  133.770,  -29.170,  1.01000,  0,  315.360,  0.00000,  0.25070,  0.00000,  0.00000,  1.00000,  1,  100.0,  262.800,  78.840
5320,  '1',  78.840,  -29.170,  133.770,  -29.170,  1.01000,  0,  315.360,  0.00000,  0.28140,  0.00000,  0.00000,  1.00000,  1,  100.0,  262.800,  78.840
5321,  '1',  78.840,  -29.170,  133.770,  -29.170,  1.01000,  0,  315.360,  0.00000,  0.12810,  0.00000,  0.00000,  1.00000,  1,  100.0,  262.800,  78.840
5324,  '1',  164.760,  25.934,  144.590,  -31.530,  1.04000,  0,  340.880,  0.00000,  0.21670,  0.00000,  0.00000,  1.00000,  1,  100.0,  284.070,  85.220
5325,  '1',  164.760,  27.121,  144.590,  -31.530,  1.04000,  0,  340.880,  0.00000,  0.15030,  0.00000,  0.00000,  1.00000,  1,  100.0,  284.070,  85.220
5326,  '1',  164.760,  74.111,  144.590,  -31.530,  1.04000,  0,  340.880,  0.00000,  0.18810,  0.00000,  0.00000,  1.00000,  1,  100.0,  284.070,  85.220
5360,  '1',  340.897,  -169.928,  469.730,  -122.980,  1.01000,  0,  1209.60,  0.00000,  0.25510,  0.00000,  0.00000,  1.00000,  1,  100.0,  1008.00,  302.400
5364,  '1',  64.000,  -23.680,  108.590,  -23.680,  1.00000,  0,  256.000,  0.00000,  0.13030,  0.00000,  0.00000,  1.00000,  1,  100.0,  213.330,  64.000
5365,  '1',  64.000,  -23.680,  108.590,  -23.680,  1.00000,  0,  256.000,  0.00000,  0.11650,  0.00000,  0.00000,  1.00000,  1,  100.0,  213.330,  64.000
5366,  '1',  64.000,  -23.680,  108.590,  -23.680,  1.00000,  0,  256.000,  0.00000,  0.15490,  0.00000,  0.00000,  1.00000,  1,  100.0,  213.330,  64.000
5367,  '1',  64.000,  -23.680,  108.590,  -23.680,  1.00000,  0,  256.000,  0.00000,  0.10020,  0.00000,  0.00000,  1.00000,  1,  100.0,  213.330,  64.000
5368,  '1',  64.000,  -23.680,  108.590,  -23.680,  1.00000,  0,  256.000,  0.00000,  0.36180,  0.00000,  0.00000,  1.00000,  1,  100.0,  213.330,  64.000
5369,  '1',  64.000,  -23.680,  108.590,  -23.680,  1.00000,  0,  256.000,  0.00000,  0.24440,  0.00000,  0.00000,  1.00000,  1,  100.0,  213.330,  64.000
5382,  '1',  62.700,  43.065,  106.380,  -23.200,  1.04000,  0,  250.800,  0.00000,  0.24770,  0.00000,  0.00000,  1.00000,  1,  100.0,  209.000,  62.700
5383,  '1',  62.700,  37.794,  106.380,  -23.200,  1.04000,  0,  250.800,  0.00000,  0.39820,  0.00000,  0.00000,  1.00000,  1,  100.0,  209.000,  62.700
5399,  '1',  69.822,  -23.850,  35.270,  -23.850,  1.04000,  0,  198.720,  0.00000,  1.00000,  0.00000,  0.00000,  1.00000,  1,  100.0,  165.600,  49.680
5415,  '1',  36.600,  -13.540,  62.100,  -13.540,  1.00000,  0,  146.400,  0.00000,  0.14030,  0.00000,  0.00000,  1.00000,  1,  100.0,  122.000,  36.600
5416,  '1',  36.600,  -13.540,  62.100,  -13.540,  1.00000,  0,  146.400,  0.00000,  0.26480,  0.00000,  0.00000,  1.00000,  1,  100.0,  122.000,  36.600
5417,  '1',  36.600,  -13.540,  62.100,  -13.540,  1.00000,  0,  146.400,  0.00000,  0.16960,  0.00000,  0.00000,  1.00000,  1,  100.0,  122.000,  36.600
5444,  '1',  604.980,  -223.840,  1026.440,  -223.840,  1.01000,  0,  2419.92,  0.00000,  0.34260,  0.00000,  0.00000,  1.00000,  1,  100.0,  2016.60,  604.980
6006,  '1',  63.900,  11.109,  108.420,  -23.640,  1.04000,  0,  255.600,  0.00000,  0.18770,  0.00000,  0.00000,  1.00000,  1,  100.0,  213.000,  63.900
6007,  '1',  127.800,  17.457,  216.830,  -47.290,  1.04000,  0,  511.200,  0.00000,  0.13420,  0.00000,  0.00000,  1.00000,  1,  100.0,  426.000,  127.800
6008,  '1',  59.500,  9.857,  100.950,  -22.010,  1.04000,  0,  238.000,  0.00000,  0.20160,  0.00000,  0.00000,  1.00000,  1,  100.0,  198.330,  59.500
6009,  '1',  59.500,  5.801,  100.950,  -22.010,  1.04000,  0,  238.000,  0.00000,  0.18430,  0.00000,  0.00000,  1.00000,  1,  100.0,  198.330,  59.500
6010,  '1',  59.500,  8.005,  100.950,  -22.010,  1.04000,  0,  238.000,  0.00000,  0.15620,  0.00000,  0.00000,  1.00000,  1,  100.0,  198.330,  59.500
6069,  '1',  54.410,  -19.106,  92.320,  -20.130,  1.03000,  0,  217.640,  0.00000,  0.22480,  0.00000,  0.00000,  1.00000,  1,  100.0,  181.370,  54.410
6070,  '1',  54.410,  -7.933,  92.320,  -20.130,  1.03000,  0,  217.640,  0.00000,  0.24660,  0.00000,  0.00000,  1.00000,  1,  100.0,  181.370,  54.410
6071,  '1',  54.410,  -20.130,  92.320,  -20.130,  1.03000,  0,  217.640,  0.00000,  0.15280,  0.00000,  0.00000,  1.00000,  1,  100.0,  181.370,  54.410
6072,  '1',  54.410,  -9.413,  92.320,  -20.130,  1.03000,  0,  217.640,  0.00000,  0.19250,  0.00000,  0.00000,  1.00000,  1,  100.0,  181.370,  54.410
6073,  '1',  54.410,  -14.367,  92.320,  -20.130,  1.03000,  0,  217.640,  0.00000,  0.14260,  0.00000,  0.00000,  1.00000,  1,  100.0,  181.370,  54.410
6074,  '1',  54.410,  -14.838,  92.320,  -20.130,  1.03000,  0,  217.640,  0.00000,  0.11150,  0.00000,  0.00000,  1.00000,  1,  100.0,  181.370,  54.410
6078,  '1',  169.000,  -68.730,  262.510,  -68.730,  1.00000,  0,  676.000,  0.00000,  0.28900,  0.00000,  0.00000,  1.00000,  1,  100.0,  563.330,  169.000
6079,  '1',  169.000,  -68.730,  262.510,  -68.730,  1.00000,  0,  676.000,  0.00000,  0.25330,  0.00000,  0.00000,  1.00000,  1,  100.0,  563.330,  169.000
6080,  '1',  169.000,  -68.730,  262.510,  -68.730,  1.00000,  0,  676.000,  0.00000,  0.32510,  0.00000,  0.00000,  1.00000,  1,  100.0,  563.330,  169.000
6110,  '1',  177.180,  12.786,  275.220,  -72.050,  1.04000,  0,  708.720,  0.00000,  0.16800,  0.00000,  0.00000,  1.00000,  1,  100.0,  590.600,  177.180
6111,  '1',  198.450,  13.163,  308.260,  -80.700,  1.04000,  0,  793.800,  0.00000,  0.21900,  0.00000,  0.00000,  1.00000,  1,  100.0,  661.500,  198.450
6145,  '1',  133.800,  -15.594,  227.010,  -49.510,  1.03000,  0,  535.200,  0.00000,  0.14770,  0.00000,  0.00000,  1.00000,  1,  100.0,  446.000,  133.800
6146,  '1',  133.800,  -16.075,  227.010,  -49.510,  1.03000,  0,  535.200,  0.00000,  0.11950,  0.00000,  0.00000,  1.00000,  1,  100.0,  446.000,  133.800
6147,  '1',  466.635,  -9.006,  474.390,  -103.450,  1.03000,  0,  1118.40,  0.00000,  0.10440,  0.00000,  0.00000,  1.00000,  1,  100.0,  932.000,  279.600
6148,  '1',  216.600,  -30.561,  367.500,  -80.140,  1.03000,  0,  866.400,  0.00000,  0.23830,  0.00000,  0.00000,  1.00000,  1,  100.0,  722.000,  216.600
6149,  '1',  216.600,  -57.687,  367.500,  -80.140,  1.03000,  0,  866.400,  0.00000,  0.12770,  0.00000,  0.00000,  1.00000,  1,  100.0,  722.000,  216.600
6164,  '1',  70.520,  -11.066,  119.640,  -26.090,  1.03000,  0,  282.060,  0.00000,  0.30070,  0.00000,  0.00000,  1.00000,  1,  100.0,  235.050,  70.520
6165,  '1',  70.520,  -10.307,  119.640,  -26.090,  1.03000,  0,  282.060,  0.00000,  0.18390,  0.00000,  0.00000,  1.00000,  1,  100.0,  235.050,  70.520
6166,  '1',  70.520,  -23.232,  119.640,  -26.090,  1.03000,  0,  282.060,  0.00000,  0.25100,  0.00000,  0.00000,  1.00000,  1,  100.0,  235.050,  70.520
6167,  '1',  70.520,  -12.641,  119.640,  -26.090,  1.03000,  0,  282.060,  0.00000,  0.13970,  0.00000,  0.00000,  1.00000,  1,  100.0,  235.050,  70.520
6243,  '1',  54.900,  14.829,  93.150,  -20.310,  1.04000,  0,  219.600,  0.00000,  0.28800,  0.00000,  0.00000,  1.00000,  1,  100.0,  183.000,  54.900
6244,  '1',  89.400,  17.303,  151.680,  -33.080,  1.04000,  0,  357.600,  0.00000,  0.12500,  0.00000,  0.00000,  1.00000,  1,  100.0,  298.000,  89.400
6245,  '1',  89.400,  20.474,  151.680,  -33.080,  1.04000,  0,  357.600,  0.00000,  0.24960,  0.00000,  0.00000,  1.00000,  1,  100.0,  298.000,  89.400
6246,  '1',  89.400,  40.335,  151.680,  -33.080,  1.04000,  0,  357.600,  0.00000,  0.16990,  0.00000,  0.00000,  1.00000,  1,  100.0,  298.000,  89.400
6247,  '1',  55.000,  33.234,  93.320,  -20.350,  1.04000,  0,  220.000,  0.00000,  0.11730,  0.00000,  0.00000,  1.00000,  1,  100.0,  183.330,  55.000
6248,  '1',  55.000,  16.531,  93.320,  -20.350,  1.04000,  0,  220.000,  0.00000,  0.27550,  0.00000,  0.00000,  1.00000,  1,  100.0,  183.330,  55.000
6249,  '1',  55.000,  11.001,  93.320,  -20.350,  1.04000,  0,  220.000,  0.00000,  0.17480,  0.00000,  0.00000,  1.00000,  1,  100.0,  183.330,  55.000
6257,  '1',  58.200,  -21.530,  98.750,  -21.530,  1.02000,  0,  232.800,  0.00000,  0.15520,  0.00000,  0.00000,  1.00000,  1,  100.0,  194.000,  58.200
6258,  '1',  58.200,  -21.530,  98.750,  -21.530,  1.02000,  0,  232.800,  0.00000,  0.26310,  0.00000,  0.00000,  1.00000,  1,  100.0,  194.000,  58.200
6260,  '1',  77.100,  -28.530,  130.810,  -28.530,  1.02000,  0,  308.400,  0.00000,  0.11970,  0.00000,  0.00000,  1.00000,  1,  100.0,  257.000,  77.100
6295,  '1',  61.870,  -22.890,  104.970,  -22.890,  1.02000,  0,  247.480,  0.00000,  0.21970,  0.00000,  0.00000,  1.00000,  1,  100.0,  206.230,  61.870
6296,  '1',  61.870,  -22.890,  104.970,  -22.890,  1.02000,  0,  247.480,  0.00000,  0.25670,  0.00000,  0.00000,  1.00000,  1,  100.0,  206.230,  61.870
6297,  '1',  61.900,  -22.890,  104.970,  -22.890,  1.02000,  0,  247.480,  0.00000,  0.14170,  0.00000,  0.00000,  1.00000,  1,  100.0,  206.230,  61.900
6302,  '1',  74.180,  -27.440,  125.850,  -27.440,  1.00000,  0,  296.700,  0.00000,  0.25960,  0.00000,  0.00000,  1.00000,  1,  100.0,  247.250,  74.180
6303,  '1',  74.180,  -27.440,  125.850,  -27.440,  1.00000,  0,  296.700,  0.00000,  0.27270,  0.00000,  0.00000,  1.00000,  1,  100.0,  247.250,  74.180
6304,  '1',  74.180,  -27.440,  125.850,  -27.440,  1.00000,  0,  296.700,  0.00000,  0.11710,  0.00000,  0.00000,  1.00000,  1,  100.0,  247.250,  74.180
6305,  '1',  74.180,  -27.440,  125.850,  -27.440,  1.00000,  0,  296.700,  0.00000,  0.12770,  0.00000,  0.00000,  1.00000,  1,  100.0,  247.250,  74.180
6349,  '1',  217.800,  136.540,  369.540,  -80.580,  1.04000,  0,  871.200,  0.00000,  0.16290,  0.00000,  0.00000,  1.00000,  1,  100.0,  726.000,  217.800
7005,  '1',  48.900,  14.081,  82.970,  -18.090,  1.04000,  0,  195.600,  0.00000,  0.13000,  0.00000,  0.00000,  1.00000,  1,  100.0,  163.000,  48.900
7006,  '1',  48.900,  25.447,  82.970,  -18.090,  1.04000,  0,  195.600,  0.00000,  0.19150,  0.00000,  0.00000,  1.00000,  1,  100.0,  163.000,  48.900
7007,  '1',  48.900,  16.516,  82.970,  -18.090,  1.04000,  0,  195.600,  0.00000,  0.34300,  0.00000,  0.00000,  1.00000,  1,  100.0,  163.000,  48.900
7008,  '1',  48.900,  15.491,  82.970,  -18.090,  1.04000,  0,  195.600,  0.00000,  0.21570,  0.00000,  0.00000,  1.00000,  1,  100.0,  163.000,  48.900
...
 0 /End of Generator data, Begin Branch data
1004,  1023,  '99',  0.01115,  0.34197,  0.00000,  0.00,  0.00,  0.00,  0.00000,  0.000,  0.00000,  0.00000,  0.00000,  0.00000,  1
1004,  1057,  '99',  0.63659,  4.10245,  0.00000,  0.00,  0.00,  0.00,  0.00000,  0.000,  0.00000,  0.00000,  0.00000,  0.00000,  1
1004,  2062,  '99',  0.75230,  3.84889,  0.00000,  0.00,  0.00,  0.00,  0.00000,  0.000,  0.00000,  0.00000,  0.00000,  0.00000,  1
1004,  2127,  '99',  0.04370,  0.36048,  0.00000,  0.00,  0.00,  0.00,  0.00000,  0.000,  0.00000,  0.00000,  0.00000,  0.00000,  1
1004,  3034,  '99',  0.36137,  2.77800,  0.00000,  0.00,  0.00,  0.00,  0.00000,  0.000,  0.00000,  0.00000,  0.00000,  0.00000,  1
1004,  3039,  '99',  0.03249,  0.33358,  0.00000,  0.00,  0.00,  0.00,  0.00000,  0.000,  0.00000,  0.00000,  0.00000,  0.00000,  1
1004,  3048,  '99',  0.04478,  0.33200,  0.00000,  0.00,  0.00,  0.00,  0.00000,  0.000,  0.00000,  0.00000,  0.00000,  0.00000,  1
1004,  3081,  '99',  0.03965,  0.42222,  0.00000,  0.00,  0.00,  0.00,  0.00000,  0.000,  0.00000,  0.00000,  0.00000,  0.00000,  1
1004,  3086,  '99',  0.54377,  3.86633,  0.00000,  0.00,  0.00,  0.00,  0.00000,  0.000,  0.00000,  0.00000,  0.00000,  0.00000,  1
1004,  3087,  '99',  0.54377,  3.86633,  0.00000,  0.00,  0.00,  0.00,  0.00000,  0.000,  0.00000,  0.00000,  0.00000,  0.00000,  1
1004,  3098,  '99',  0.02758,  0.44862,  0.00000,  0.00,  0.00,  0.00,  0.00000,  0.000,  0.00000,  0.00000,  0.00000,  0.00000,  1
1004,  3110,  '99',  0.05998,  0.49907,  0.00000,  0.00,  0.00,  0.00,  0.00000,  0.000,  0.00000,  0.00000,  0.00000,  0.00000,  1
1004,  3118,  '99',  0.20527,  2.03803,  0.00000,  0.00,  0.00,  0.00,  0.00000,  0.000,  0.00000,  0.00000,  0.00000,  0.00000,  1
1004,  3129,  '99',  1.36455,  4.27585,  0.00000,  0.00,  0.00,  0.00,  0.00000,  0.000,  0.00000,  0.00000,  0.00000,  0.00000,  1
1009,  1033,  '99',  0.07922,  0.70845,  0.00000,  0.00,  0.00,  0.00,  0.00000,  0.000,  0.00000,  0.00000,  0.00000,  0.00000,  1
1009,  1039,  '99',  1.38671,  4.73349,  0.00000,  0.00,  0.00,  0.00,  0.00000,  0.000,  0.00000,  0.00000,  0.00000,  0.00000,  1
1009,  1070,  '99',  -0.00824,  0.40196,  0.00000,  0.00,  0.00,  0.00,  0.00000,  0.000,  0.00000,  0.00000,  0.00000,  0.00000,  1
1009,  1082,  '99',  0.09843,  0.46287,  0.00000,  0.00,  0.00,  0.00,  0.00000,  0.000,  0.00000,  0.00000,  0.00000,  0.00000,  1
1009,  1088,  '99',  0.64319,  2.66977,  0.00000,  0.00,  0.00,  0.00,  0.00000,  0.000,  0.00000,  0.00000,  0.00000,  0.00000,  1
1021,  1026,  '99',  0.01389,  0.81991,  0.00000,  0.00,  0.00,  0.00,  0.00000,  0.000,  0.00000,  0.00000,  0.00000,  0.00000,  1
1021,  1035,  '99',  0.64303,  4.15296,  0.00000,  0.00,  0.00,  0.00,  0.00000,  0.000,  0.00000,  0.00000,  0.00000,  0.00000,  1
1021,  1042,  '99',  0.55378,  4.20343,  0.00000,  0.00,  0.00,  0.00,  0.00000,  0.000,  0.00000,  0.00000,  0.00000,  0.00000,  1
1021,  1084,  '99',  0.01198,  0.19516,  0.00000,  0.00,  0.00,  0.00,  0.00000,  0.000,  0.00000,  0.00000,  0.00000,  0.00000,  1
1021,  3048,  '99',  0.55138,  4.56885,  0.00000,  0.00,  0.00,  0.00,  0.00000,  0.000,  0.00000,  0.00000,  0.00000,  0.00000,  1
1021,  3112,  '99',  0.45072,  2.35434,  0.00000,  0.00,  0.00,  0.00,  0.00000,  0.000,  0.00000,  0.00000,  0.00000,  0.00000,  1
1021,  3113,  '99',  0.45072,  2.35434,  0.00000,  0.00,  0.00,  0.00,  0.00000,  0.000,  0.00000,  0.00000,  0.00000,  0.00000,  1
1023,  2127,  '99',  0.14514,  2.44647,  0.00000,  0.00,  0.00,  0.00,  0.00000,  0.000,  0.00000,  0.00000,  0.00000,  0.00000,  1
1023,  3098,  '99',  0.00862,  2.96139,  0.00000,  0.00,  0.00,  0.00,  0.00000,  0.000,  0.00000,  0.00000,  0.00000,  0.00000,  1
1023,  3110,  '99',  0.08425,  0.91915,  0.00000,  0.00,  0.00,  0.00,  0.00000,  0.000,  0.00000,  0.00000,  0.00000,  0.00000,  1
1026,  1035,  '99',  0.42364,  2.87724,  0.00000,  0.00,  0.00,  0.00,  0.00000,  0.000,  0.00000,  0.00000,  0.00000,  0.00000,  1
1026,  1042,  '99',  0.36188,  2.91570,  0.00000,  0.00,  0.00,  0.00,  0.00000,  0.000,  0.00000,  0.00000,  0.00000,  0.00000,  1
1026,  1066,  '99',  0.53046,  3.89784,  0.00000,  0.00,  0.00,  0.00,  0.00000,  0.000,  0.00000,  0.00000,  0.00000,  0.00000,  1
1026,  1084,  '99',  0.07248,  0.48718,  0.00000,  0.00,  0.00,  0.00,  0.00000,  0.000,  0.00000,  0.00000,  0.00000,  0.00000,  1
1033,  1039,  '99',  0.07399,  0.91234,  0.00000,  0.00,  0.00,  0.00,  0.00000,  0.000,  0.00000,  0.00000,  0.00000,  0.00000,  1
1033,  1070,  '99',  0.11915,  0.88274,  0.00000,  0.00,  0.00,  0.00,  0.00000,  0.000,  0.00000,  0.00000,  0.00000,  0.00000,  1
1033,  1081,  '99',  0.00300,  0.03092,  0.00000,  0.00,  0.00,  0.00,  0.00000,  0.000,  0.00000,  0.00000,  0.00000,  0.00000,  1
1033,  1082,  '99',  0.10746,  0.36183,  0.00000,  0.00,  0.00,  0.00,  0.00000,  0.000,  0.00000,  0.00000,  0.00000,  0.00000,  1
1033,  1088,  '99',  0.01651,  0.50931,  0.00000,  0.00,  0.00,  0.00,  0.00000,  0.000,  0.00000,  0.00000,  0.00000,  0.00000,  1
1033,  3020,  '99',  0.03640,  0.84843,  0.00000,  0.00,  0.00,  0.00,  0.00000,  0.000,  0.00000,  0.00000,  0.00000,  0.00000,  1
1033,  4115,  '99',  0.16001,  3.79194,  0.00000,  0.00,  0.00,  0.00,  0.00000,  0.000,  0.00000,  0.00000,  0.00000,  0.00000,  1
1033,  4116,  '99',  0.20746,  3.98816,  0.00000,  0.00,  0.00,  0.00,  0.00000,  0.000,  0.00000,  0.00000,  0.00000,  0.00000,  1
1033,  4195,  '99',  0.30429,  2.72114,  0.00000,  0.00,  0.00,  0.00,  0.00000,  0.000,  0.00000,  0.00000,  0.00000,  0.00000,  1
1035,  1042,  '99',  0.00821,  0.65434,  0.00000,  0.00,  0.00,  0.00,  0.00000,  0.000,  0.00000,  0.00000,  0.00000,  0.00000,  1
1035,  1057,  '99',  0.09976,  2.21780,  0.00000,  0.00,  0.00,  0.00,  0.00000,  0.000,  0.00000,  0.00000,  0.00000,  0.00000,  1
1035,  1066,  '99',  0.03361,  0.92298,  0.00000,  0.00,  0.00,  0.00,  0.00000,  0.000,  0.00000,  0.00000,  0.00000,  0.00000,  1
1035,  1084,  '99',  0.67299,  2.25935,  0.00000,  0.00,  0.00,  0.00,  0.00000,  0.000,  0.00000,  0.00000,  0.00000,  0.00000,  1
1035,  1088,  '99',  0.05952,  0.92786,  0.00000,  0.00,  0.00,  0.00,  0.00000,  0.000,  0.00000,  0.00000,  0.00000,  0.00000,  1
1039,  1048,  '99',  0.07434,  3.12995,  0.00000,  0.00,  0.00,  0.00,  0.00000,  0.000,  0.00000,  0.00000,  0.00000,  0.00000,  1
1039,  1053,  '99',  -0.00438,  4.18948,  0.00000,  0.00,  0.00,  0.00,  0.00000,  0.000,  0.00000,  0.00000,  0.00000,  0.00000,  1
1039,  1082,  '99',  0.01244,  0.17226,  0.00000,  0.00,  0.00,  0.00,  0.00000,  0.000,  0.00000,  0.00000,  0.00000,  0.00000,  1
1039,  1088,  '99',  0.64924,  3.18479,  0.00000,  0.00,  0.00,  0.00,  0.00000,  0.000,  0.00000,  0.00000,  0.00000,  0.00000,  1
1042,  1057,  '99',  -0.01068,  1.63967,  0.00000,  0.00,  0.00,  0.00,  0.00000,  0.000,  0.00000,  0.00000,  0.00000,  0.00000,  1
1042,  1066,  '99',  -0.01427,  0.56263,  0.00000,  0.00,  0.00,  0.00,  0.00000,  0.000,  0.00000,  0.00000,  0.00000,  0.00000,  1
1042,  1084,  '99',  0.60964,  2.23544,  0.00000,  0.00,  0.00,  0.00,  0.00000,  0.000,  0.00000,  0.00000,  0.00000,  0.00000,  1
1042,  1088,  '99',  0.28284,  3.37735,  0.00000,  0.00,  0.00,  0.00,  0.00000,  0.000,  0.00000,  0.00000,  0.00000,  0.00000,  1
1048,  1049,  '99',  0.00161,  0.34074,  0.00000,  0.00,  0.00,  0.00,  0.00000,  0.000,  0.00000,  0.00000,  0.00000,  0.00000,  1
1048,  1053,  '99',  0.00189,  0.25472,  0.00000,  0.00,  0.00,  0.00,  0.00000,  0.000,  0.00000,  0.00000,  0.00000,  0.00000,  1
1048,  1076,  '99',  0.43633,  2.86813,  0.00000,  0.00,  0.00,  0.00,  0.00000,  0.000,  0.00000,  0.00000,  0.00000,  0.00000,  1
1048,  1081,  '99',  0.57461,  3.85350,  0.00000,  0.00,  0.00,  0.00,  0.00000,  0.000,  0.00000,  0.00000,  0.00000,  0.00000,  1
1048,  1082,  '99',  0.41363,  1.77934,  0.00000,  0.00,  0.00,  0.00,  0.00000,  0.000,  0.00000,  0.00000,  0.00000,  0.00000,  1
1048,  3048,  '99',  0.42480,  3.04891,  0.00000,  0.00,  0.00,  0.00,  0.00000,  0.000,  0.00000,  0.00000,  0.00000,  0.00000,  1
1049,  1053,  '99',  -0.00915,  0.45587,  0.00000,  0.00,  0.00,  0.00,  0.00000,  0.000,  0.00000,  0.00000,  0.00000,  0.00000,  1
1049,  1082,  '99',  0.65260,  3.20413,  0.00000,  0.00,  0.00,  0.00,  0.00000,  0.000,  0.00000,  0.00000,  0.00000,  0.00000,  1
1053,  1076,  '99',  0.48855,  3.85124,  0.00000,  0.00,  0.00,  0.00,  0.00000,  0.000,  0.00000,  0.00000,  0.00000,  0.00000,  1
1053,  1081,  '99',  0.00299,  0.02983,  0.00000,  0.00,  0.00,  0.00,  0.00000,  0.000,  0.00000,  0.00000,  0.00000,  0.00000,  1
1053,  1082,  '99',  0.49430,  2.39399,  0.00000,  0.00,  0.00,  0.00,  0.00000,  0.000,  0.00000,  0.00000,  0.00000,  0.00000,  1
1053,  3048,  '99',  0.46713,  4.09270,  0.00000,  0.00,  0.00,  0.00,  0.00000,  0.000,  0.00000,  0.00000,  0.00000,  0.00000,  1
1057,  1066,  '99',  -0.02612,  1.43125,  0.00000,  0.00,  0.00,  0.00,  0.00000,  0.000,  0.00000,  0.00000,  0.00000,  0.00000,  1
1057,  1076,  '99',  0.20570,  3.12407,  0.00000,  0.00,  0.00,  0.00,  0.00000,  0.000,  0.00000,  0.00000,  0.00000,  0.00000,  1
1057,  1081,  '99',  0.26199,  4.03327,  0.00000,  0.00,  0.00,  0.00,  0.00000,  0.000,  0.00000,  0.00000,  0.00000,  0.00000,  1
1057,  1084,  '99',  0.48671,  2.58446,  0.00000,  0.00,  0.00,  0.00,  0.00000,  0.000,  0.00000,  0.00000,  0.00000,  0.00000,  1
1057,  3048,  '99',  0.16175,  2.75754,  0.00000,  0.00,  0.00,  0.00,  0.00000,  0.000,  0.00000,  0.00000,  0.00000,  0.00000,  1
1066,  1084,  '99',  0.80672,  2.83170,  0.00000,  0.00,  0.00,  0.00,  0.00000,  0.000,  0.00000,  0.00000,  0.00000,  0.00000,  1
1066,  1088,  '99',  0.51324,  4.75346,  0.00000,  0.00,  0.00,  0.00,  0.00000,  0.000,  0.00000,  0.00000,  0.00000,  0.00000,  1
...